I"Ç/Users/winstonzhao/Flatiron/Mod%202/rails-dynamic-request-readme-dc-web-062518/app/assets/stylesheets/application.css?type=text/css&id=a9f93037b9bfa963fafd6b905163e220243e0d40cd2738195c415c7cf8814c53:ET