I"Ô/Users/winstonzhao/Flatiron/Mod%202/rails-dynamic-request-readme-dc-web-062518/app/assets/javascripts/application.js?type=application/javascript&id=91dec41b945da41cc05ce09d939bc8eb69d2971b301afbd8d9d8adba4bd399e8:ET