I"ä/Users/sydneybarlow%201/Flatiron%20Labs/Module%202/rails-dynamic-request-readme-dc-web-062518/app/assets/stylesheets/application.css?type=text/css&pipeline=self&id=cff9948243d6b03d91ecfbc6bcc74efc8c66ec5241c021a5fa3472307a6acc76:ET