I"ò/Users/sydneybarlow%201/Flatiron%20Labs/Module%202/rails-dynamic-request-readme-dc-web-062518/app/assets/javascripts/application.js?type=application/javascript&pipeline=debug&id=c3d694ef936b120ee104d3add59732a76241c031de772e5c702212fccbafd6a3:ET