I"þ/Users/ayanazairecotton/Dropbox%20(Startup%20Shell)/Flatiron%20School%20Code/rails-dynamic-request-readme-dc-web-062518/app/assets/stylesheets/application.css?type=text/css&pipeline=self&id=1173ae4c402f1ec2deee314cf6ed35f1d82cb3de2fe313a66922350673cb3190:ET