[o:Set:
@hash}I"environment-version:ETTI"environment-paths;TTI"rails-env;TTI"0processors:type=text/css&file_type=text/css;TTI"ƒfile-digest:///Users/winstonzhao/Flatiron/Mod%202/rails-dynamic-request-readme-dc-web-062518/app/assets/stylesheets/application.css;TTI"Lprocessors:type=text/css&file_type=text/css&engines=.scss&pipeline=self;TTI"~file-digest:///Users/winstonzhao/Flatiron/Mod%202/rails-dynamic-request-readme-dc-web-062518/app/assets/stylesheets/posts.scss;TTI">processors:type=text/css&file_type=text/css&pipeline=self;TTI"xfile-digest:///Users/winstonzhao/Flatiron/Mod%202/rails-dynamic-request-readme-dc-web-062518/app/assets/stylesheets;TTF