I"â/Users/winstonzhao/Flatiron/Mod%202/rails-dynamic-request-readme-dc-web-062518/app/assets/javascripts/application.js?type=application/javascript&pipeline=self&id=b3b6222c3d21e85e6408dd062fe72c8b502d5fd65fbe0db6f1cc14690671ce46:ET