I"ã/Users/sydneybarlow%201/Flatiron%20Labs/Module%202/rails-dynamic-request-readme-dc-web-062518/app/assets/javascripts/application.js?type=application/javascript&id=9ce50c40b848cc34ae86c420dda7ba6cc0d3fa8a77aa058166ca14cf1b592fd9:ET