I"ñ/Users/sydneybarlow%201/Flatiron%20Labs/Module%202/rails-dynamic-request-readme-dc-web-062518/app/assets/javascripts/application.js?type=application/javascript&pipeline=self&id=3e05fc5c9bbb02888a78ebc5db77b7ab1ed7824d400b55d5f128e87dc5ea6bc3:ET