I"ã/Users/sydneybarlow%201/Flatiron%20Labs/Module%202/rails-dynamic-request-readme-dc-web-062518/app/assets/javascripts/application.js?type=application/javascript&id=780b06a6af8da3d964ed0b06fa26035cb1e02cd82560619990532bfe6f5b1ab7:ET