I"ä/Users/sydneybarlow%201/Flatiron%20Labs/Module%202/rails-dynamic-request-readme-dc-web-062518/app/assets/stylesheets/application.css?type=text/css&pipeline=self&id=7329777cf848eb0a196bc5355f222581b2d840637efa88b1f93a8d6cf94c3166:ET