[o:Set:
@hash}I"environment-version:ETTI"environment-paths;TTI"rails-env;TTI">processors:type=text/css&file_type=text/css&pipeline=self;TTI"ƒfile-digest:///Users/winstonzhao/Flatiron/Mod%202/rails-dynamic-request-readme-dc-web-062518/app/assets/stylesheets/application.css;TTI"xfile-digest:///Users/winstonzhao/Flatiron/Mod%202/rails-dynamic-request-readme-dc-web-062518/app/assets/stylesheets;TTI"~file-digest:///Users/winstonzhao/Flatiron/Mod%202/rails-dynamic-request-readme-dc-web-062518/app/assets/stylesheets/posts.scss;TTF