[o:Set:
@hash}
I"environment-version:ETTI"environment-paths;TTI"rails-env;TTI"jprocessors:type=application/javascript&file_type=application/javascript&engines=.coffee&pipeline=self;TTI"€file-digest:///Users/winstonzhao/Flatiron/Mod%202/rails-dynamic-request-readme-dc-web-062518/app/assets/javascripts/posts.coffee;TTF