I"Ð/Users/winstonzhao/Flatiron/Mod%202/rails-dynamic-request-readme-dc-web-062518/app/assets/stylesheets/posts.scss?type=text/css&pipeline=self&id=8034ca6701bd85c01d8cdf12f8dc38a9d979919a88e75a4b6120355a81ac6def:ET