I"/Users/ayanazairecotton/Dropbox%20(Startup%20Shell)/Flatiron%20School%20Code/rails-dynamic-request-readme-dc-web-062518/app/assets/javascripts/application.js?type=application/javascript&pipeline=self&id=8b7c30bff0613ac16990fedb27d40c5657c78b3b2dcdd74e7c54caf498c079c5:ET