I"ñ/Users/sydneybarlow%201/Flatiron%20Labs/Module%202/rails-dynamic-request-readme-dc-web-062518/app/assets/javascripts/application.js?type=application/javascript&pipeline=self&id=6511a7830439a00959dc53c928173febd2ed78e53f9bc81ff20aaf2178b78645:ET