I"Ö/Users/sydneybarlow%201/Flatiron%20Labs/Module%202/rails-dynamic-request-readme-dc-web-062518/app/assets/stylesheets/application.css?type=text/css&id=f7a4b4634762d67abb09a8a6a37097c468fc95f9c72436d4f3138512125e7c34:ET