I"à/Users/winstonzhao/Flatiron/Mod%202/rails-dynamic-request-readme-dc-web-062518/app/assets/javascripts/posts.coffee?type=application/javascript&pipeline=self&id=e21bb42247df9ea8681ba95cf1f140d7f7fa68eb049d152d8902c42988ee9fe5:ET