I"å/Users/sydneybarlow%201/Flatiron%20Labs/Module%202/rails-dynamic-request-readme-dc-web-062518/app/assets/stylesheets/application.css?type=text/css&pipeline=debug&id=059664692af625a96270283175aeeaf93f6a5b3a6d169adf19b026199f725d52:ET