[o:Set:
@hash}I"environment-version:ETTI"environment-paths;TTI"rails-env;TTI"0processors:type=text/css&file_type=text/css;TTI"¬file-digest:///Users/ayanazairecotton/Dropbox%20(Startup%20Shell)/Flatiron%20School%20Code/rails-dynamic-request-readme-dc-web-062518/app/assets/stylesheets/application.css;TTI">processors:type=text/css&file_type=text/css&pipeline=self;TTI"œfile-digest:///Users/ayanazairecotton/Dropbox%20(Startup%20Shell)/Flatiron%20School%20Code/rails-dynamic-request-readme-dc-web-062518/app/assets/stylesheets;TTF