I"Õ/Users/winstonzhao/Flatiron/Mod%202/rails-dynamic-request-readme-dc-web-062518/app/assets/stylesheets/application.css?type=text/css&pipeline=self&id=10fae285ef7d81dac6f0f3165637bc19d5bc540685800a00ebe156c7fa7c8215:ET