I"ð/Users/ayanazairecotton/Dropbox%20(Startup%20Shell)/Flatiron%20School%20Code/rails-dynamic-request-readme-dc-web-062518/app/assets/stylesheets/application.css?type=text/css&id=d2ba22f87bb7648f6485ad016214cc97714afd0324a3b416e6e8b945b1447c9a:ET