I"Ö/Users/sydneybarlow%201/Flatiron%20Labs/Module%202/rails-dynamic-request-readme-dc-web-062518/app/assets/stylesheets/application.css?type=text/css&id=0e28a6c04a64ad391f38316230b260cd842d621965f815e3a99082f3893fa750:ET