I"ý/Users/ayanazairecotton/Dropbox%20(Startup%20Shell)/Flatiron%20School%20Code/rails-dynamic-request-readme-dc-web-062518/app/assets/javascripts/application.js?type=application/javascript&id=b5da5584b7aab47b82762dc2fc90c1a9a4560891f6cbd6f4fb059b3554e19817:ET